Version 4.1
SHEET 1 1492 680
WIRE 848 -128 848 -144
WIRE 848 -16 848 -48
WIRE 896 -16 848 -16
WIRE 1008 -16 960 -16
WIRE 1008 0 1008 -16
WIRE 192 16 128 16
WIRE 352 16 256 16
WIRE 528 16 432 16
WIRE 848 16 848 -16
WIRE 848 16 528 16
WIRE 528 32 528 16
WIRE 256 112 128 112
WIRE 352 112 336 112
WIRE 528 112 432 112
WIRE 848 112 528 112
WIRE 848 160 848 112
WIRE 912 160 848 160
WIRE 976 160 912 160
WIRE 1088 160 1088 144
WIRE 1088 160 1040 160
WIRE 1280 160 1088 160
WIRE 1296 160 1280 160
WIRE 912 176 912 160
WIRE 1088 176 1088 160
WIRE 1280 192 1280 160
WIRE 912 272 912 256
WIRE 1088 272 1088 256
WIRE 1280 272 1280 256
FLAG 208 -320 L_PLC
IOPIN 208 -320 Out
FLAG 208 -240 N_PLC
IOPIN 208 -240 Out
FLAG 128 16 L_PLC
IOPIN 128 16 In
FLAG 128 112 N_PLC
IOPIN 128 112 In
FLAG 112 -320 3V3
IOPIN 112 -320 Out
FLAG 112 -240 0
FLAG 848 -144 3V3
IOPIN 848 -144 In
FLAG 1296 160 ZC_IN
IOPIN 1296 160 Out
FLAG 912 272 0
FLAG 1088 272 0
FLAG 1280 272 0
FLAG 1088 144 ZC_TP
IOPIN 1088 144 Out
FLAG 1008 0 0
SYMBOL voltage 208 -336 R0
WINDOW 3 39 56 Left 2
WINDOW 123 0 0 Left 0
WINDOW 39 0 0 Left 0
SYMATTR Value SINE(0 120 60)
SYMATTR InstName V1
SYMBOL diode 192 32 R270
WINDOW 0 32 32 VTop 2
WINDOW 3 0 32 VBottom 2
SYMATTR InstName D1
SYMATTR Value VS-E5PH6012
SYMBOL res 352 96 R90
WINDOW 0 0 56 VBottom 2
WINDOW 3 32 56 VTop 2
SYMATTR InstName R1
SYMATTR Value 33k
SYMBOL res 448 96 R90
WINDOW 0 0 56 VBottom 2
WINDOW 3 32 56 VTop 2
SYMATTR InstName R2
SYMATTR Value 33k
SYMBOL res 448 0 R90
WINDOW 0 0 56 VBottom 2
WINDOW 3 32 56 VTop 2
SYMATTR InstName R3
SYMATTR Value 33k
SYMBOL res 512 16 R0
SYMATTR InstName R4
SYMATTR Value 100k
SYMBOL voltage 112 -336 R0
WINDOW 123 0 0 Left 0
WINDOW 39 0 0 Left 0
SYMATTR InstName V2
SYMATTR Value 3.3
SYMBOL cap 960 -32 R90
WINDOW 0 0 32 VBottom 2
WINDOW 3 32 32 VTop 2
SYMATTR InstName C1
SYMATTR Value 100n
SYMBOL res 832 -144 R0
SYMATTR InstName R5
SYMATTR Value 1k
SYMBOL cap 1040 144 R90
WINDOW 0 0 32 VBottom 2
WINDOW 3 32 32 VTop 2
SYMATTR InstName C2
SYMATTR Value 100n
SYMBOL res 896 160 R0
SYMATTR InstName R6
SYMATTR Value 47k
SYMBOL res 1072 160 R0
SYMATTR InstName R7
SYMATTR Value 1Meg
SYMBOL diode 1296 256 R180
WINDOW 0 24 64 Left 2
WINDOW 3 24 0 Left 2
SYMATTR InstName D2
SYMATTR Value 1N750
TEXT 976 -264 Left 2 !.tran 0 10m 0 100u
TEXT 1312 224 Left 2 ;4.7 V
