Version 4.1
SHEET 1 1412 680
WIRE 640 -128 640 -144
WIRE 640 -16 640 -48
WIRE 688 -16 640 -16
WIRE 800 -16 752 -16
WIRE 800 0 800 -16
WIRE 192 16 128 16
WIRE 352 16 256 16
WIRE 528 16 432 16
WIRE 640 16 640 -16
WIRE 640 16 528 16
WIRE 528 32 528 16
WIRE 256 112 128 112
WIRE 352 112 336 112
WIRE 528 112 432 112
WIRE 640 112 528 112
WIRE 640 160 640 112
WIRE 704 160 640 160
WIRE 768 160 704 160
WIRE 880 160 880 144
WIRE 880 160 832 160
WIRE 1072 160 880 160
WIRE 1088 160 1072 160
WIRE 704 176 704 160
WIRE 880 176 880 160
WIRE 1072 192 1072 160
WIRE 704 272 704 256
WIRE 880 272 880 256
WIRE 1072 272 1072 256
FLAG 208 -320 L_PLC
IOPIN 208 -320 Out
FLAG 208 -240 N_PLC
IOPIN 208 -240 Out
FLAG 128 16 L_PLC
IOPIN 128 16 In
FLAG 128 112 N_PLC
IOPIN 128 112 In
FLAG 112 -320 3V3
IOPIN 112 -320 Out
FLAG 112 -240 0
FLAG 640 -144 3V3
IOPIN 640 -144 In
FLAG 1088 160 ZC_IN
IOPIN 1088 160 Out
FLAG 704 272 0
FLAG 880 272 0
FLAG 1072 272 0
FLAG 880 144 ZC_TP
IOPIN 880 144 Out
FLAG 800 0 0
SYMBOL voltage 208 -336 R0
WINDOW 3 39 56 Left 2
WINDOW 123 0 0 Left 0
WINDOW 39 0 0 Left 0
SYMATTR Value SINE(0 120 60)
SYMATTR InstName V1
SYMBOL diode 192 32 R270
WINDOW 0 32 32 VTop 2
WINDOW 3 0 32 VBottom 2
SYMATTR InstName D1
SYMATTR Value VS-E5PH6012
SYMBOL res 352 96 R90
WINDOW 0 0 56 VBottom 2
WINDOW 3 32 56 VTop 2
SYMATTR InstName R1
SYMATTR Value 33k
SYMBOL res 448 96 R90
WINDOW 0 0 56 VBottom 2
WINDOW 3 32 56 VTop 2
SYMATTR InstName R2
SYMATTR Value 33k
SYMBOL res 448 0 R90
WINDOW 0 0 56 VBottom 2
WINDOW 3 32 56 VTop 2
SYMATTR InstName R3
SYMATTR Value 33k
SYMBOL res 512 16 R0
SYMATTR InstName R4
SYMATTR Value 100k
SYMBOL voltage 112 -336 R0
WINDOW 123 0 0 Left 0
WINDOW 39 0 0 Left 0
SYMATTR InstName V2
SYMATTR Value 3.3
SYMBOL cap 752 -32 R90
WINDOW 0 0 32 VBottom 2
WINDOW 3 32 32 VTop 2
SYMATTR InstName C1
SYMATTR Value 100n
SYMBOL res 624 -144 R0
SYMATTR InstName R5
SYMATTR Value 1k
SYMBOL cap 832 144 R90
WINDOW 0 0 32 VBottom 2
WINDOW 3 32 32 VTop 2
SYMATTR InstName C2
SYMATTR Value 100n
SYMBOL res 688 160 R0
SYMATTR InstName R6
SYMATTR Value 47k
SYMBOL res 864 160 R0
SYMATTR InstName R7
SYMATTR Value 1Meg
SYMBOL diode 1088 256 R180
WINDOW 0 24 64 Left 2
WINDOW 3 24 0 Left 2
SYMATTR InstName D2
SYMATTR Value 1N750
TEXT 976 -264 Left 2 !.tran 10ms
TEXT 1104 224 Left 2 ;4.7 V
